26

H     8.587830    0.819060   16.402450
C     7.511176    0.991559   16.263645
H     7.288420    1.787040   15.933250
H     6.985550    0.483990   15.757300
N     7.128192    1.005210   17.702525
C     5.892287    1.849090   17.901935
C     8.202892    1.615782   18.537310
C     6.794058   -0.407048   18.144355
H     6.106250    2.593690   17.673200
H     5.246490    1.352690   17.204000
H     5.754530    1.476790   19.022150
H     7.806230    1.489200   19.354500
H     8.372890    2.320670   18.122850
H     9.056790    0.918340   18.337900
H     6.516590   -0.148920   19.002600
H     6.116020   -0.794240   17.770950
C     7.877551   -1.389920   18.308575
H     8.617140   -1.067260   18.846200
H     7.366580   -2.146930   18.943950
O     8.340649   -1.794486   17.014365
C     9.363568   -2.717790   17.030005
C     9.810057   -3.041691   15.628270
O     9.800287   -3.138489   18.068110
H     9.144720   -2.717790   14.916650
H     9.701610   -4.020840   15.327200
H    10.747000   -3.139730   15.444500
