conformer_18
     RDKit          3D

 15 14  0  0  0  0  0  0  0  0999 V2000
    1.9906    0.3290   -0.0639 C   0  0  0  0  0  0  0  0  0  0  0  0
    0.7377   -0.5370   -0.0738 C   0  0  0  0  0  0  0  0  0  0  0  0
   -0.5328    0.2783    0.1768 C   0  0  2  0  0  0  0  0  0  0  0  0
   -1.7616   -0.6193    0.2328 C   0  0  0  0  0  0  0  0  0  0  0  0
   -0.6990    1.2207   -0.8789 O   0  0  0  0  0  0  0  0  0  0  0  0
    2.1013    0.8458    0.8947 H   0  0  0  0  0  0  0  0  0  0  0  0
    1.9628    1.0803   -0.8592 H   0  0  0  0  0  0  0  0  0  0  0  0
    2.8788   -0.2917   -0.2190 H   0  0  0  0  0  0  0  0  0  0  0  0
    0.8379   -1.3158    0.6910 H   0  0  0  0  0  0  0  0  0  0  0  0
    0.6747   -1.0355   -1.0488 H   0  0  0  0  0  0  0  0  0  0  0  0
   -0.4403    0.8350    1.1162 H   0  0  0  0  0  0  0  0  0  0  0  0
   -1.9074   -1.1443   -0.7177 H   0  0  0  0  0  0  0  0  0  0  0  0
   -1.6778   -1.3593    1.0344 H   0  0  0  0  0  0  0  0  0  0  0  0
   -2.6643   -0.0228    0.4037 H   0  0  0  0  0  0  0  0  0  0  0  0
   -1.5007    1.7368   -0.6882 H   0  0  0  0  0  0  0  0  0  0  0  0
  1  2  1  0
  2  3  1  0
  3  4  1  0
  3  5  1  0
  1  6  1  0
  1  7  1  0
  1  8  1  0
  2  9  1  0
  2 10  1  0
  3 11  1  1
  4 12  1  0
  4 13  1  0
  4 14  1  0
  5 15  1  0
M  END
$$$$
