conformer_43
     RDKit          3D

 15 14  0  0  0  0  0  0  0  0999 V2000
    1.9803    0.0338   -0.1065 C   0  0  0  0  0  0  0  0  0  0  0  0
    0.6174   -0.0389    0.5689 C   0  0  0  0  0  0  0  0  0  0  0  0
   -0.5208   -0.2124   -0.4402 C   0  0  1  0  0  0  0  0  0  0  0  0
   -1.8688   -0.3439    0.2554 C   0  0  0  0  0  0  0  0  0  0  0  0
   -0.5682    0.9063   -1.3219 O   0  0  0  0  0  0  0  0  0  0  0  0
    2.7693    0.1293    0.6462 H   0  0  0  0  0  0  0  0  0  0  0  0
    2.1764   -0.8712   -0.6903 H   0  0  0  0  0  0  0  0  0  0  0  0
    2.0481    0.8971   -0.7757 H   0  0  0  0  0  0  0  0  0  0  0  0
    0.4707    0.8840    1.1432 H   0  0  0  0  0  0  0  0  0  0  0  0
    0.6152   -0.8738    1.2791 H   0  0  0  0  0  0  0  0  0  0  0  0
   -0.3442   -1.1040   -1.0518 H   0  0  0  0  0  0  0  0  0  0  0  0
   -2.0965    0.5508    0.8453 H   0  0  0  0  0  0  0  0  0  0  0  0
   -2.6708   -0.4455   -0.4837 H   0  0  0  0  0  0  0  0  0  0  0  0
   -1.8914   -1.2150    0.9172 H   0  0  0  0  0  0  0  0  0  0  0  0
   -0.7166    1.7035   -0.7851 H   0  0  0  0  0  0  0  0  0  0  0  0
  1  2  1  0
  2  3  1  0
  3  4  1  0
  3  5  1  0
  1  6  1  0
  1  7  1  0
  1  8  1  0
  2  9  1  0
  2 10  1  0
  3 11  1  6
  4 12  1  0
  4 13  1  0
  4 14  1  0
  5 15  1  0
M  END
$$$$
