conformer_79
     RDKit          3D

 15 14  0  0  0  0  0  0  0  0999 V2000
   -2.0152    0.1030    0.0843 C   0  0  0  0  0  0  0  0  0  0  0  0
   -0.6061    0.6805    0.1137 C   0  0  0  0  0  0  0  0  0  0  0  0
    0.4617   -0.3817   -0.1563 C   0  0  1  0  0  0  0  0  0  0  0  0
    1.8543    0.2333   -0.1921 C   0  0  0  0  0  0  0  0  0  0  0  0
    0.4178   -1.3616    0.8772 O   0  0  0  0  0  0  0  0  0  0  0  0
   -2.2296   -0.3562   -0.8860 H   0  0  0  0  0  0  0  0  0  0  0  0
   -2.7508    0.8957    0.2542 H   0  0  0  0  0  0  0  0  0  0  0  0
   -2.1522   -0.6547    0.8621 H   0  0  0  0  0  0  0  0  0  0  0  0
   -0.4423    1.1317    1.1000 H   0  0  0  0  0  0  0  0  0  0  0  0
   -0.5340    1.4800   -0.6328 H   0  0  0  0  0  0  0  0  0  0  0  0
    0.2565   -0.8842   -1.1083 H   0  0  0  0  0  0  0  0  0  0  0  0
    1.9343    0.9922   -0.9763 H   0  0  0  0  0  0  0  0  0  0  0  0
    2.6093   -0.5384   -0.3772 H   0  0  0  0  0  0  0  0  0  0  0  0
    2.1048    0.6932    0.7703 H   0  0  0  0  0  0  0  0  0  0  0  0
    1.0915   -2.0328    0.6741 H   0  0  0  0  0  0  0  0  0  0  0  0
  1  2  1  0
  2  3  1  0
  3  4  1  0
  3  5  1  0
  1  6  1  0
  1  7  1  0
  1  8  1  0
  2  9  1  0
  2 10  1  0
  3 11  1  6
  4 12  1  0
  4 13  1  0
  4 14  1  0
  5 15  1  0
M  END
$$$$
