conformer_2
     RDKit          3D

 15 14  0  0  0  0  0  0  0  0999 V2000
    1.5832   -0.7869   -0.1565 C   0  0  0  0  0  0  0  0  0  0  0  0
    0.6068    0.2441   -0.6982 C   0  0  0  0  0  0  0  0  0  0  0  0
   -0.5004    0.6206    0.2902 C   0  0  2  0  0  0  0  0  0  0  0  0
   -1.4227   -0.5405    0.6334 C   0  0  0  0  0  0  0  0  0  0  0  0
   -1.3027    1.6479   -0.2920 O   0  0  0  0  0  0  0  0  0  0  0  0
    2.3980   -0.9440   -0.8707 H   0  0  0  0  0  0  0  0  0  0  0  0
    1.0969   -1.7529    0.0076 H   0  0  0  0  0  0  0  0  0  0  0  0
    2.0217   -0.4535    0.7893 H   0  0  0  0  0  0  0  0  0  0  0  0
    1.1626    1.1497   -0.9722 H   0  0  0  0  0  0  0  0  0  0  0  0
    0.1640   -0.1213   -1.6332 H   0  0  0  0  0  0  0  0  0  0  0  0
   -0.0660    1.0235    1.2121 H   0  0  0  0  0  0  0  0  0  0  0  0
   -0.8957   -1.3344    1.1697 H   0  0  0  0  0  0  0  0  0  0  0  0
   -2.2514   -0.1955    1.2616 H   0  0  0  0  0  0  0  0  0  0  0  0
   -1.8717   -0.9647   -0.2714 H   0  0  0  0  0  0  0  0  0  0  0  0
   -0.7226    2.4079   -0.4697 H   0  0  0  0  0  0  0  0  0  0  0  0
  1  2  1  0
  2  3  1  0
  3  4  1  0
  3  5  1  0
  1  6  1  0
  1  7  1  0
  1  8  1  0
  2  9  1  0
  2 10  1  0
  3 11  1  1
  4 12  1  0
  4 13  1  0
  4 14  1  0
  5 15  1  0
M  END
$$$$
conformer_4
     RDKit          3D

 15 14  0  0  0  0  0  0  0  0999 V2000
   -1.7214    0.1053   -0.4193 C   0  0  0  0  0  0  0  0  0  0  0  0
   -0.5985    0.5523    0.5020 C   0  0  0  0  0  0  0  0  0  0  0  0
    0.6434   -0.3410    0.4354 C   0  0  1  0  0  0  0  0  0  0  0  0
    1.3245   -0.3259   -0.9256 C   0  0  0  0  0  0  0  0  0  0  0  0
    1.5925    0.1238    1.3951 O   0  0  0  0  0  0  0  0  0  0  0  0
   -1.4387    0.1997   -1.4718 H   0  0  0  0  0  0  0  0  0  0  0  0
   -2.6087    0.7259   -0.2584 H   0  0  0  0  0  0  0  0  0  0  0  0
   -1.9972   -0.9361   -0.2257 H   0  0  0  0  0  0  0  0  0  0  0  0
   -0.3244    1.5901    0.2747 H   0  0  0  0  0  0  0  0  0  0  0  0
   -0.9711    0.5677    1.5341 H   0  0  0  0  0  0  0  0  0  0  0  0
    0.3843   -1.3723    0.6999 H   0  0  0  0  0  0  0  0  0  0  0  0
    2.2579   -0.8986   -0.8905 H   0  0  0  0  0  0  0  0  0  0  0  0
    1.5948    0.6950   -1.2171 H   0  0  0  0  0  0  0  0  0  0  0  0
    0.6889   -0.7572   -1.7039 H   0  0  0  0  0  0  0  0  0  0  0  0
    1.1736    0.0714    2.2711 H   0  0  0  0  0  0  0  0  0  0  0  0
  1  2  1  0
  2  3  1  0
  3  4  1  0
  3  5  1  0
  1  6  1  0
  1  7  1  0
  1  8  1  0
  2  9  1  0
  2 10  1  0
  3 11  1  1
  4 12  1  0
  4 13  1  0
  4 14  1  0
  5 15  1  0
M  END
$$$$
conformer_18
     RDKit          3D

 15 14  0  0  0  0  0  0  0  0999 V2000
    1.9906    0.3290   -0.0639 C   0  0  0  0  0  0  0  0  0  0  0  0
    0.7377   -0.5370   -0.0738 C   0  0  0  0  0  0  0  0  0  0  0  0
   -0.5328    0.2783    0.1768 C   0  0  2  0  0  0  0  0  0  0  0  0
   -1.7616   -0.6193    0.2328 C   0  0  0  0  0  0  0  0  0  0  0  0
   -0.6990    1.2207   -0.8789 O   0  0  0  0  0  0  0  0  0  0  0  0
    2.1013    0.8458    0.8947 H   0  0  0  0  0  0  0  0  0  0  0  0
    1.9628    1.0803   -0.8592 H   0  0  0  0  0  0  0  0  0  0  0  0
    2.8788   -0.2917   -0.2190 H   0  0  0  0  0  0  0  0  0  0  0  0
    0.8379   -1.3158    0.6910 H   0  0  0  0  0  0  0  0  0  0  0  0
    0.6747   -1.0355   -1.0488 H   0  0  0  0  0  0  0  0  0  0  0  0
   -0.4403    0.8350    1.1162 H   0  0  0  0  0  0  0  0  0  0  0  0
   -1.9074   -1.1443   -0.7177 H   0  0  0  0  0  0  0  0  0  0  0  0
   -1.6778   -1.3593    1.0344 H   0  0  0  0  0  0  0  0  0  0  0  0
   -2.6643   -0.0228    0.4037 H   0  0  0  0  0  0  0  0  0  0  0  0
   -1.5007    1.7368   -0.6882 H   0  0  0  0  0  0  0  0  0  0  0  0
  1  2  1  0
  2  3  1  0
  3  4  1  0
  3  5  1  0
  1  6  1  0
  1  7  1  0
  1  8  1  0
  2  9  1  0
  2 10  1  0
  3 11  1  1
  4 12  1  0
  4 13  1  0
  4 14  1  0
  5 15  1  0
M  END
$$$$
conformer_23
     RDKit          3D

 15 14  0  0  0  0  0  0  0  0999 V2000
    1.5770    0.4757    0.3606 C   0  0  0  0  0  0  0  0  0  0  0  0
    0.7324   -0.3668   -0.5867 C   0  0  0  0  0  0  0  0  0  0  0  0
   -0.7820   -0.1896   -0.4308 C   0  0  1  0  0  0  0  0  0  0  0  0
   -1.3052   -0.5623    0.9499 C   0  0  0  0  0  0  0  0  0  0  0  0
   -1.1558    1.1514   -0.7338 O   0  0  0  0  0  0  0  0  0  0  0  0
    2.6403    0.3103    0.1578 H   0  0  0  0  0  0  0  0  0  0  0  0
    1.3949    0.2082    1.4054 H   0  0  0  0  0  0  0  0  0  0  0  0
    1.3774    1.5439    0.2344 H   0  0  0  0  0  0  0  0  0  0  0  0
    1.0124   -0.0952   -1.6121 H   0  0  0  0  0  0  0  0  0  0  0  0
    0.9917   -1.4232   -0.4497 H   0  0  0  0  0  0  0  0  0  0  0  0
   -1.2765   -0.8275   -1.1721 H   0  0  0  0  0  0  0  0  0  0  0  0
   -2.3983   -0.4897    0.9692 H   0  0  0  0  0  0  0  0  0  0  0  0
   -1.0208   -1.5834    1.2209 H   0  0  0  0  0  0  0  0  0  0  0  0
   -0.9398    0.1248    1.7200 H   0  0  0  0  0  0  0  0  0  0  0  0
   -0.8477    1.7235   -0.0110 H   0  0  0  0  0  0  0  0  0  0  0  0
  1  2  1  0
  2  3  1  0
  3  4  1  0
  3  5  1  0
  1  6  1  0
  1  7  1  0
  1  8  1  0
  2  9  1  0
  2 10  1  0
  3 11  1  6
  4 12  1  0
  4 13  1  0
  4 14  1  0
  5 15  1  0
M  END
$$$$
conformer_43
     RDKit          3D

 15 14  0  0  0  0  0  0  0  0999 V2000
    1.9803    0.0338   -0.1065 C   0  0  0  0  0  0  0  0  0  0  0  0
    0.6174   -0.0389    0.5689 C   0  0  0  0  0  0  0  0  0  0  0  0
   -0.5208   -0.2124   -0.4402 C   0  0  1  0  0  0  0  0  0  0  0  0
   -1.8688   -0.3439    0.2554 C   0  0  0  0  0  0  0  0  0  0  0  0
   -0.5682    0.9063   -1.3219 O   0  0  0  0  0  0  0  0  0  0  0  0
    2.7693    0.1293    0.6462 H   0  0  0  0  0  0  0  0  0  0  0  0
    2.1764   -0.8712   -0.6903 H   0  0  0  0  0  0  0  0  0  0  0  0
    2.0481    0.8971   -0.7757 H   0  0  0  0  0  0  0  0  0  0  0  0
    0.4707    0.8840    1.1432 H   0  0  0  0  0  0  0  0  0  0  0  0
    0.6152   -0.8738    1.2791 H   0  0  0  0  0  0  0  0  0  0  0  0
   -0.3442   -1.1040   -1.0518 H   0  0  0  0  0  0  0  0  0  0  0  0
   -2.0965    0.5508    0.8453 H   0  0  0  0  0  0  0  0  0  0  0  0
   -2.6708   -0.4455   -0.4837 H   0  0  0  0  0  0  0  0  0  0  0  0
   -1.8914   -1.2150    0.9172 H   0  0  0  0  0  0  0  0  0  0  0  0
   -0.7166    1.7035   -0.7851 H   0  0  0  0  0  0  0  0  0  0  0  0
  1  2  1  0
  2  3  1  0
  3  4  1  0
  3  5  1  0
  1  6  1  0
  1  7  1  0
  1  8  1  0
  2  9  1  0
  2 10  1  0
  3 11  1  6
  4 12  1  0
  4 13  1  0
  4 14  1  0
  5 15  1  0
M  END
$$$$
conformer_58
     RDKit          3D

 15 14  0  0  0  0  0  0  0  0999 V2000
    1.5521    0.1093    0.6842 C   0  0  0  0  0  0  0  0  0  0  0  0
    0.6915    0.4941   -0.5124 C   0  0  0  0  0  0  0  0  0  0  0  0
   -0.8092    0.2540   -0.3150 C   0  0  1  0  0  0  0  0  0  0  0  0
   -1.1628   -1.2096   -0.0942 C   0  0  0  0  0  0  0  0  0  0  0  0
   -1.2864    1.0012    0.8002 O   0  0  0  0  0  0  0  0  0  0  0  0
    1.5087   -0.9663    0.8786 H   0  0  0  0  0  0  0  0  0  0  0  0
    2.5982    0.3681    0.4902 H   0  0  0  0  0  0  0  0  0  0  0  0
    1.2383    0.6388    1.5890 H   0  0  0  0  0  0  0  0  0  0  0  0
    1.0392   -0.0517   -1.3972 H   0  0  0  0  0  0  0  0  0  0  0  0
    0.8530    1.5615   -0.7077 H   0  0  0  0  0  0  0  0  0  0  0  0
   -1.3439    0.6120   -1.2024 H   0  0  0  0  0  0  0  0  0  0  0  0
   -2.2506   -1.3294   -0.0407 H   0  0  0  0  0  0  0  0  0  0  0  0
   -0.7683   -1.5805    0.8575 H   0  0  0  0  0  0  0  0  0  0  0  0
   -0.7854   -1.8382   -0.9062 H   0  0  0  0  0  0  0  0  0  0  0  0
   -1.0745    1.9364    0.6387 H   0  0  0  0  0  0  0  0  0  0  0  0
  1  2  1  0
  2  3  1  0
  3  4  1  0
  3  5  1  0
  1  6  1  0
  1  7  1  0
  1  8  1  0
  2  9  1  0
  2 10  1  0
  3 11  1  6
  4 12  1  0
  4 13  1  0
  4 14  1  0
  5 15  1  0
M  END
$$$$
conformer_61
     RDKit          3D

 15 14  0  0  0  0  0  0  0  0999 V2000
   -1.9225    0.1551    0.0293 C   0  0  0  0  0  0  0  0  0  0  0  0
   -0.5876   -0.4280   -0.4147 C   0  0  0  0  0  0  0  0  0  0  0  0
    0.5998    0.1538    0.3575 C   0  0  1  0  0  0  0  0  0  0  0  0
    1.8998   -0.5307   -0.0419 C   0  0  0  0  0  0  0  0  0  0  0  0
    0.7407    1.5432    0.0766 O   0  0  0  0  0  0  0  0  0  0  0  0
   -2.0779    0.0063    1.1025 H   0  0  0  0  0  0  0  0  0  0  0  0
   -2.7429   -0.3366   -0.5034 H   0  0  0  0  0  0  0  0  0  0  0  0
   -1.9828    1.2265   -0.1842 H   0  0  0  0  0  0  0  0  0  0  0  0
   -0.6180   -1.5156   -0.2801 H   0  0  0  0  0  0  0  0  0  0  0  0
   -0.4678   -0.2303   -1.4869 H   0  0  0  0  0  0  0  0  0  0  0  0
    0.4513    0.0370    1.4370 H   0  0  0  0  0  0  0  0  0  0  0  0
    1.8674   -1.6034    0.1716 H   0  0  0  0  0  0  0  0  0  0  0  0
    2.7443   -0.0928    0.5014 H   0  0  0  0  0  0  0  0  0  0  0  0
    2.1063   -0.3904   -1.1087 H   0  0  0  0  0  0  0  0  0  0  0  0
   -0.0103    2.0059    0.4846 H   0  0  0  0  0  0  0  0  0  0  0  0
  1  2  1  0
  2  3  1  0
  3  4  1  0
  3  5  1  0
  1  6  1  0
  1  7  1  0
  1  8  1  0
  2  9  1  0
  2 10  1  0
  3 11  1  1
  4 12  1  0
  4 13  1  0
  4 14  1  0
  5 15  1  0
M  END
$$$$
conformer_63
     RDKit          3D

 15 14  0  0  0  0  0  0  0  0999 V2000
    1.4915    0.5009   -0.5887 C   0  0  0  0  0  0  0  0  0  0  0  0
    0.7955   -0.0876    0.6318 C   0  0  0  0  0  0  0  0  0  0  0  0
   -0.7351   -0.0741    0.5543 C   0  0  2  0  0  0  0  0  0  0  0  0
   -1.2892   -0.9075   -0.5921 C   0  0  0  0  0  0  0  0  0  0  0  0
   -1.2103    1.2607    0.4057 O   0  0  0  0  0  0  0  0  0  0  0  0
    1.2953   -0.0930   -1.4861 H   0  0  0  0  0  0  0  0  0  0  0  0
    2.5749    0.5131   -0.4308 H   0  0  0  0  0  0  0  0  0  0  0  0
    1.1687    1.5297   -0.7756 H   0  0  0  0  0  0  0  0  0  0  0  0
    1.1479   -1.1137    0.7883 H   0  0  0  0  0  0  0  0  0  0  0  0
    1.1073    0.4975    1.5059 H   0  0  0  0  0  0  0  0  0  0  0  0
   -1.1398   -0.4632    1.4958 H   0  0  0  0  0  0  0  0  0  0  0  0
   -2.3839   -0.9259   -0.5484 H   0  0  0  0  0  0  0  0  0  0  0  0
   -1.0303   -0.4774   -1.5651 H   0  0  0  0  0  0  0  0  0  0  0  0
   -0.9243   -1.9380   -0.5490 H   0  0  0  0  0  0  0  0  0  0  0  0
   -0.8683    1.7787    1.1542 H   0  0  0  0  0  0  0  0  0  0  0  0
  1  2  1  0
  2  3  1  0
  3  4  1  0
  3  5  1  0
  1  6  1  0
  1  7  1  0
  1  8  1  0
  2  9  1  0
  2 10  1  0
  3 11  1  1
  4 12  1  0
  4 13  1  0
  4 14  1  0
  5 15  1  0
M  END
$$$$
conformer_79
     RDKit          3D

 15 14  0  0  0  0  0  0  0  0999 V2000
   -2.0152    0.1030    0.0843 C   0  0  0  0  0  0  0  0  0  0  0  0
   -0.6061    0.6805    0.1137 C   0  0  0  0  0  0  0  0  0  0  0  0
    0.4617   -0.3817   -0.1563 C   0  0  1  0  0  0  0  0  0  0  0  0
    1.8543    0.2333   -0.1921 C   0  0  0  0  0  0  0  0  0  0  0  0
    0.4178   -1.3616    0.8772 O   0  0  0  0  0  0  0  0  0  0  0  0
   -2.2296   -0.3562   -0.8860 H   0  0  0  0  0  0  0  0  0  0  0  0
   -2.7508    0.8957    0.2542 H   0  0  0  0  0  0  0  0  0  0  0  0
   -2.1522   -0.6547    0.8621 H   0  0  0  0  0  0  0  0  0  0  0  0
   -0.4423    1.1317    1.1000 H   0  0  0  0  0  0  0  0  0  0  0  0
   -0.5340    1.4800   -0.6328 H   0  0  0  0  0  0  0  0  0  0  0  0
    0.2565   -0.8842   -1.1083 H   0  0  0  0  0  0  0  0  0  0  0  0
    1.9343    0.9922   -0.9763 H   0  0  0  0  0  0  0  0  0  0  0  0
    2.6093   -0.5384   -0.3772 H   0  0  0  0  0  0  0  0  0  0  0  0
    2.1048    0.6932    0.7703 H   0  0  0  0  0  0  0  0  0  0  0  0
    1.0915   -2.0328    0.6741 H   0  0  0  0  0  0  0  0  0  0  0  0
  1  2  1  0
  2  3  1  0
  3  4  1  0
  3  5  1  0
  1  6  1  0
  1  7  1  0
  1  8  1  0
  2  9  1  0
  2 10  1  0
  3 11  1  6
  4 12  1  0
  4 13  1  0
  4 14  1  0
  5 15  1  0
M  END
$$$$
conformer_80
     RDKit          3D

 15 14  0  0  0  0  0  0  0  0999 V2000
   -1.8904   -0.3804    0.0461 C   0  0  0  0  0  0  0  0  0  0  0  0
   -0.4187   -0.6525    0.3274 C   0  0  0  0  0  0  0  0  0  0  0  0
    0.5090    0.3828   -0.3147 C   0  0  2  0  0  0  0  0  0  0  0  0
    1.9707    0.0153   -0.0989 C   0  0  0  0  0  0  0  0  0  0  0  0
    0.2972    1.6659    0.2665 O   0  0  0  0  0  0  0  0  0  0  0  0
   -2.2163    0.5631    0.4939 H   0  0  0  0  0  0  0  0  0  0  0  0
   -2.5076   -1.1797    0.4689 H   0  0  0  0  0  0  0  0  0  0  0  0
   -2.0824   -0.3376   -1.0307 H   0  0  0  0  0  0  0  0  0  0  0  0
   -0.1696   -1.6529   -0.0457 H   0  0  0  0  0  0  0  0  0  0  0  0
   -0.2739   -0.6591    1.4146 H   0  0  0  0  0  0  0  0  0  0  0  0
    0.3146    0.4589   -1.3906 H   0  0  0  0  0  0  0  0  0  0  0  0
    2.2078   -0.9551   -0.5455 H   0  0  0  0  0  0  0  0  0  0  0  0
    2.2136   -0.0201    0.9690 H   0  0  0  0  0  0  0  0  0  0  0  0
    2.6245    0.7729   -0.5445 H   0  0  0  0  0  0  0  0  0  0  0  0
   -0.5786    1.9785   -0.0160 H   0  0  0  0  0  0  0  0  0  0  0  0
  1  2  1  0
  2  3  1  0
  3  4  1  0
  3  5  1  0
  1  6  1  0
  1  7  1  0
  1  8  1  0
  2  9  1  0
  2 10  1  0
  3 11  1  6
  4 12  1  0
  4 13  1  0
  4 14  1  0
  5 15  1  0
M  END
$$$$
